Circuit: * Z:\home\jgreenberg\classes\circuits\lab2\schematics\exp2.asc

.step r=100
.OP point found by inspection.
.step r=1000
.step r=10000

Date: Sun Sep 27 22:25:44 2020
Total elapsed time: 0.059 seconds.

tnom = 27
temp = 27
method = trap
totiter = 126
traniter = 0
tranpoints = 0
accept = 0
rejected = 0
matrix size = 10
fillins = 0
solver = Normal
Matrix Compiler1:      27 opcodes  0.4/[0.2]/0.3
Matrix Compiler2: 740 bytes object code size  0.2/0.3/[0.2]

