Circuit: * Z:\home\jgreenberg\classes\circuits\lab2\schematics\exp2-VI.asc

.step r=100
.step r=1000
.step r=10000

Date: Sun Sep 27 13:24:04 2020
Total elapsed time: 0.039 seconds.

tnom = 27
temp = 27
method = trap
totiter = 231
traniter = 0
tranpoints = 0
accept = 0
rejected = 0
matrix size = 4
fillins = 0
solver = Normal
Matrix Compiler1:       6 opcodes  0.0/0.0/[0.0]
Matrix Compiler2: off  [0.0]/0.0/0.0

